# Name: AZM
# Created by ModelServer 0.9.8

# model_server_result.job_id: sfvHFfF3LJIscxw7gFYUWQ
# model_server_result.datetime_utc: 2022-03-03 13:56:44
# model_server_result.server_version: 0.9.8
# model_server_result.query_name: ligand
# model_server_result.source_id: pdb-bcif
# model_server_result.entry_id: 1azm

# model_server_params.name: atom_site
# model_server_params.value: {"label_asym_id":"C","auth_seq_id":262}

# model_server_stats.io_time_ms: 58
# model_server_stats.parse_time_ms: 37
# model_server_stats.create_model_time_ms: 13
# model_server_stats.query_time_ms: 202
# model_server_stats.encode_time_ms: 0
# model_server_stats.element_count: 13

@<TRIPOS>MOLECULE
AZM
13 13 1
****
****

@<TRIPOS>ATOM
1 C1 34.763 17.193 -17.938 C.ar 1 AZM 0.000
2 C2 34.437 16.448 -20.145 C.ar 1 AZM 0.000
3 C3 32.939 14.771 -20.994 C.2 1 AZM 0.000
4 C4 32.451 14.002 -22.139 C.3 1 AZM 0.000
5 N1 36.491 17.630 -15.961 N.pl3 1 AZM 0.000
6 N2 35.066 17.627 -20.043 N.ar 1 AZM 0.000
7 N3 35.188 18.071 -18.767 N.ar 1 AZM 0.000
8 N4 33.759 15.835 -21.214 N.am 1 AZM 0.000
9 O1 34.672 16.010 -15.723 O.2 1 AZM 0.000
10 O2 34.171 18.417 -15.693 O.2 1 AZM 0.000
11 O3 32.582 14.429 -19.863 O.2 1 AZM 0.000
12 S1 34.954 17.373 -16.193 S.o2 1 AZM 0.000
13 S2 34.048 15.811 -18.609 S.3 1 AZM 0.000
@<TRIPOS>BOND
1 1 7 ar
2 1 12 1
3 1 13 ar
4 2 6 ar
5 2 8 1
6 2 13 ar
7 3 4 1
8 3 8 1
9 3 11 2
10 5 12 1
11 6 7 ar
12 9 12 2
13 10 12 2
@<TRIPOS>SUBSTRUCTURE
1 AZM 1
