# Name: DKA
# Created by ModelServer 0.9.8

# model_server_result.job_id: SnE07IMs2jcBafPH2BHM8g
# model_server_result.datetime_utc: 2022-03-04 17:15:47
# model_server_result.server_version: 0.9.8
# model_server_result.query_name: ligand
# model_server_result.source_id: pdb-bcif
# model_server_result.entry_id: 3nq3

# model_server_params.name: atom_site
# model_server_params.value: {"label_asym_id":"B","auth_seq_id":3053}

# model_server_stats.io_time_ms: 2
# model_server_stats.parse_time_ms: 52
# model_server_stats.create_model_time_ms: 6
# model_server_stats.query_time_ms: 232
# model_server_stats.encode_time_ms: 0
# model_server_stats.element_count: 12

@<TRIPOS>MOLECULE
DKA
12 11 1
****
****

@<TRIPOS>ATOM
1 C1 8.040 -0.601 0.816 C.2 1 DKA 0.000
2 O1 7.249 -1.122 -0.004 O.2 1 DKA 0.000
3 C2 9.515 -0.668 0.516 C.3 1 DKA 0.000
4 C3 10.003 -2.110 0.552 C.3 1 DKA 0.000
5 C4 11.337 -2.217 -0.166 C.3 1 DKA 0.000
6 C5 12.139 -3.413 0.332 C.3 1 DKA 0.000
7 C6 13.525 -3.360 -0.296 C.3 1 DKA 0.000
8 C7 14.235 -4.699 -0.184 C.3 1 DKA 0.000
9 C8 15.224 -4.853 -1.322 C.3 1 DKA 0.000
10 C9 16.606 -5.228 -0.840 C.3 1 DKA 0.000
11 C10 17.606 -5.156 -1.973 C.3 1 DKA 0.000
12 O2 7.673 -0.019 1.862 O.3 1 DKA 0.000
@<TRIPOS>BOND
1 1 2 2
2 1 3 1
3 1 12 1
4 3 4 1
5 4 5 1
6 5 6 1
7 6 7 1
8 7 8 1
9 8 9 1
10 9 10 1
11 10 11 1
@<TRIPOS>SUBSTRUCTURE
1 DKA 1
