# Name: OLA
# Created by ModelServer 0.9.8

# model_server_result.job_id: zo9KvZKOuuYos9_Cx_JfjQ
# model_server_result.datetime_utc: 2022-03-31 08:45:41
# model_server_result.server_version: 0.9.8
# model_server_result.query_name: ligand
# model_server_result.source_id: pdb-bcif
# model_server_result.entry_id: 1hms

# model_server_params.name: atom_site
# model_server_params.value: {"label_asym_id":"B","auth_seq_id":133}

# model_server_stats.io_time_ms: 41
# model_server_stats.parse_time_ms: 38
# model_server_stats.create_model_time_ms: 3
# model_server_stats.query_time_ms: 221
# model_server_stats.encode_time_ms: 0
# model_server_stats.element_count: 20

@<TRIPOS>MOLECULE
OLA
20 19 1
****
****

@<TRIPOS>ATOM
1 C1 19.030 33.338 52.492 C.2 1 OLA 0.000
2 O1 18.321 32.334 52.411 O.2 1 OLA 0.000
3 O2 19.014 34.416 51.910 O.3 1 OLA 0.000
4 C2 20.002 33.266 53.577 C.3 1 OLA 0.000
5 C3 20.600 34.503 54.125 C.3 1 OLA 0.000
6 C4 21.803 34.275 55.060 C.3 1 OLA 0.000
7 C5 22.341 35.602 55.561 C.3 1 OLA 0.000
8 C6 23.569 35.534 56.400 C.3 1 OLA 0.000
9 C7 23.537 34.531 57.514 C.3 1 OLA 0.000
10 C8 22.693 35.032 58.687 C.3 1 OLA 0.000
11 C9 22.642 34.052 59.804 C.2 1 OLA 0.000
12 C10 21.721 34.138 60.860 C.2 1 OLA 0.000
13 C11 20.778 35.236 61.059 C.3 1 OLA 0.000
14 C12 19.336 34.993 60.903 C.3 1 OLA 0.000
15 C13 18.923 34.610 59.496 C.3 1 OLA 0.000
16 C14 17.506 34.084 59.484 C.3 1 OLA 0.000
17 C15 16.731 34.508 58.278 C.3 1 OLA 0.000
18 C16 17.327 35.668 57.566 C.3 1 OLA 0.000
19 C17 16.304 36.426 56.732 C.3 1 OLA 0.000
20 C18 16.728 37.892 56.648 C.3 1 OLA 0.000
@<TRIPOS>BOND
1 1 2 2
2 1 3 1
3 1 4 1
4 4 5 1
5 5 6 1
6 6 7 1
7 7 8 1
8 8 9 1
9 9 10 1
10 10 11 1
11 11 12 2
12 12 13 1
13 13 14 1
14 14 15 1
15 15 16 1
16 16 17 1
17 17 18 1
18 18 19 1
19 19 20 1
@<TRIPOS>SUBSTRUCTURE
1 OLA 1
