# Name: RTL
# Created by ModelServer 0.9.8

# model_server_result.job_id: wwKAw4o8SN90ZnbUEM_OsQ
# model_server_result.datetime_utc: 2022-03-04 17:17:14
# model_server_result.server_version: 0.9.8
# model_server_result.query_name: ligand
# model_server_result.source_id: pdb-bcif
# model_server_result.entry_id: 1gx8

# model_server_params.name: atom_site
# model_server_params.value: {"label_asym_id":"B","auth_seq_id":1163}

# model_server_stats.io_time_ms: 60
# model_server_stats.parse_time_ms: 42
# model_server_stats.create_model_time_ms: 6
# model_server_stats.query_time_ms: 212
# model_server_stats.encode_time_ms: 0
# model_server_stats.element_count: 21

@<TRIPOS>MOLECULE
RTL
21 21 1
****
****

@<TRIPOS>ATOM
1 C1 12.192 -2.058 56.596 C.3 1 RTL 0.000
2 C2 13.666 -2.121 57.070 C.3 1 RTL 0.000
3 C3 13.827 -2.429 58.532 C.3 1 RTL 0.000
4 C4 13.217 -1.296 59.332 C.3 1 RTL 0.000
5 C5 11.838 -0.951 58.837 C.2 1 RTL 0.000
6 C6 11.299 -1.388 57.663 C.2 1 RTL 0.000
7 C7 10.061 -0.727 57.206 C.2 1 RTL 0.000
8 C8 8.795 -1.108 57.183 C.2 1 RTL 0.000
9 C9 7.561 -0.502 56.735 C.2 1 RTL 0.000
10 C10 6.429 -1.215 56.902 C.2 1 RTL 0.000
11 C11 5.090 -0.821 56.520 C.2 1 RTL 0.000
12 C12 3.976 -1.559 56.658 C.2 1 RTL 0.000
13 C13 2.627 -1.130 56.295 C.2 1 RTL 0.000
14 C14 2.018 -0.296 57.149 C.2 1 RTL 0.000
15 C15 0.675 0.329 57.032 C.3 1 RTL 0.000
16 O1 -0.235 -0.364 57.709 O.3 1 RTL 0.000
17 C16 12.217 -1.201 55.306 C.3 1 RTL 0.000
18 C17 11.703 -3.462 56.222 C.3 1 RTL 0.000
19 C18 11.236 0.159 59.677 C.3 1 RTL 0.000
20 C19 7.595 0.903 56.151 C.3 1 RTL 0.000
21 C20 2.035 -1.659 55.029 C.3 1 RTL 0.000
@<TRIPOS>BOND
1 1 2 1
2 1 6 1
3 1 17 1
4 1 18 1
5 2 3 1
6 3 4 1
7 4 5 1
8 5 6 2
9 5 19 1
10 6 7 1
11 7 8 2
12 8 9 1
13 9 10 2
14 9 20 1
15 10 11 1
16 11 12 2
17 12 13 1
18 13 14 2
19 13 21 1
20 14 15 1
21 15 16 1
@<TRIPOS>SUBSTRUCTURE
1 RTL 1
