# Name: CIT
# Created by ModelServer 0.9.9

# model_server_result.job_id: X-iJihSlySds1h8OvPJi2A
# model_server_result.datetime_utc: 2022-07-04 17:25:17
# model_server_result.server_version: 0.9.9
# model_server_result.query_name: ligand
# model_server_result.source_id: pdb-bcif
# model_server_result.entry_id: 3p6c

# model_server_params.name: atom_site
# model_server_params.value: {"label_asym_id":"B","auth_seq_id":133}

# model_server_stats.io_time_ms: 57
# model_server_stats.parse_time_ms: 55
# model_server_stats.create_model_time_ms: 7
# model_server_stats.query_time_ms: 204
# model_server_stats.encode_time_ms: 0
# model_server_stats.element_count: 26

@<TRIPOS>MOLECULE
CIT
13 12 1
****
****

@<TRIPOS>ATOM
1 C1 6.554 5.861 15.906 C.2 1 CIT 0.000
2 O1 6.536 5.733 14.668 O.2 1 CIT 0.000
3 O2 5.753 5.131 16.503 O.3 1 CIT 0.000
4 C2 7.452 6.736 16.780 C.3 1 CIT 0.000
5 C3 6.590 7.190 18.012 C.3 1 CIT 0.000
6 O7 5.467 6.275 18.050 O.3 1 CIT 0.000
7 C4 6.928 7.418 19.507 C.3 1 CIT 0.000
8 C5 5.857 8.324 20.050 C.2 1 CIT 0.000
9 O3 4.654 8.165 19.717 O.2 1 CIT 0.000
10 O4 6.128 9.242 20.872 O.3 1 CIT 0.000
11 C6 6.045 8.501 17.519 C.2 1 CIT 0.000
12 O5 5.478 8.556 16.398 O.2 1 CIT 0.000
13 O6 6.189 9.516 18.222 O.3 1 CIT 0.000
@<TRIPOS>BOND
1 1 2 2
2 1 3 1
3 1 4 1
4 4 5 1
5 5 6 1
6 5 7 1
7 5 11 1
8 7 8 1
9 8 9 2
10 8 10 1
11 11 12 2
12 11 13 1
@<TRIPOS>SUBSTRUCTURE
1 CIT 1
