# Name: IZP
# Created by ModelServer 0.9.9

# model_server_result.job_id: 9SkHGgAXkOrEGCp-oTnHQg
# model_server_result.datetime_utc: 2022-07-04 17:33:42
# model_server_result.server_version: 0.9.9
# model_server_result.query_name: ligand
# model_server_result.source_id: pdb-bcif
# model_server_result.entry_id: 3p6g

# model_server_params.name: atom_site
# model_server_params.value: {"label_asym_id":"B","auth_seq_id":133}

# model_server_stats.io_time_ms: 56
# model_server_stats.parse_time_ms: 31
# model_server_stats.create_model_time_ms: 36
# model_server_stats.query_time_ms: 230
# model_server_stats.encode_time_ms: 0
# model_server_stats.element_count: 15

@<TRIPOS>MOLECULE
IZP
15 15 1
****
****

@<TRIPOS>ATOM
1 C1 5.452 5.863 15.792 C.2 1 IZP 0.000
2 O1 4.386 5.453 16.325 O.3 1 IZP 0.000
3 C2 6.335 8.688 21.600 C.3 1 IZP 0.000
4 O2 6.260 5.178 15.100 O.2 1 IZP 0.000
5 C3 6.278 7.472 22.505 C.3 1 IZP 0.000
6 C4 4.816 7.056 22.669 C.3 1 IZP 0.000
7 C5 6.991 7.759 23.834 C.3 1 IZP 0.000
8 C6 5.731 7.384 15.929 C.3 1 IZP 0.000
9 C7 7.001 7.725 15.128 C.3 1 IZP 0.000
10 C8 5.950 7.720 17.422 C.ar 1 IZP 0.000
11 C9 4.987 8.373 18.114 C.ar 1 IZP 0.000
12 C10 5.132 8.678 19.444 C.ar 1 IZP 0.000
13 C11 6.262 8.313 20.124 C.ar 1 IZP 0.000
14 C12 7.282 7.627 19.441 C.ar 1 IZP 0.000
15 C13 7.112 7.311 18.082 C.ar 1 IZP 0.000
@<TRIPOS>BOND
1 1 4 2
2 1 8 1
3 1 2 1
4 3 13 1
5 3 5 1
6 5 6 1
7 5 7 1
8 8 9 1
9 8 10 1
10 10 15 ar
11 10 11 ar
12 11 12 ar
13 12 13 ar
14 13 14 ar
15 14 15 ar
@<TRIPOS>SUBSTRUCTURE
1 IZP 1
