# Name: NAG
# Created by ModelServer 0.9.9

# model_server_result.job_id: hL3unykKhKGWNzUAbfQf0Q
# model_server_result.datetime_utc: 2022-05-16 12:48:24
# model_server_result.server_version: 0.9.9
# model_server_result.query_name: ligand
# model_server_result.source_id: pdb-bcif
# model_server_result.entry_id: 3b1b

# model_server_params.name: atom_site
# model_server_params.value: {"label_asym_id":"G","auth_seq_id":382}

# model_server_stats.io_time_ms: 76
# model_server_stats.parse_time_ms: 53
# model_server_stats.create_model_time_ms: 12
# model_server_stats.query_time_ms: 218
# model_server_stats.encode_time_ms: 1
# model_server_stats.element_count: 14

@<TRIPOS>MOLECULE
NAG
14 14 1
****
****

@<TRIPOS>ATOM
1 C1 43.202 43.773 -18.709 C.3 1 NAG 0.000
2 C2 41.876 43.291 -19.308 C.3 1 NAG 0.000
3 C3 42.007 42.717 -20.729 C.3 1 NAG 0.000
4 C4 43.063 43.387 -21.613 C.3 1 NAG 0.000
5 C5 44.279 43.869 -20.811 C.3 1 NAG 0.000
6 C6 45.190 44.778 -21.634 C.3 1 NAG 0.000
7 C7 40.088 42.266 -17.969 C.2 1 NAG 0.000
8 C8 39.298 40.986 -18.101 C.3 1 NAG 0.000
9 N2 41.331 42.249 -18.458 N.am 1 NAG 0.000
10 O3 40.760 42.774 -21.398 O.3 1 NAG 0.000
11 O4 43.468 42.464 -22.611 O.3 1 NAG 0.000
12 O5 43.858 44.577 -19.663 O.3 1 NAG 0.000
13 O6 44.643 46.079 -21.723 O.3 1 NAG 0.000
14 O7 39.590 43.262 -17.421 O.2 1 NAG 0.000
@<TRIPOS>BOND
1 1 2 1
2 1 12 1
3 2 3 1
4 2 9 1
5 3 4 1
6 3 10 1
7 4 5 1
8 4 11 1
9 5 6 1
10 5 12 1
11 6 13 1
12 7 8 1
13 7 9 1
14 7 14 2
@<TRIPOS>SUBSTRUCTURE
1 NAG 1
