# Name: PLM
# Created by ModelServer 0.9.9

# model_server_result.job_id: PmrAodyD7HhYSL-imIrW6Q
# model_server_result.datetime_utc: 2022-07-04 17:57:54
# model_server_result.server_version: 0.9.9
# model_server_result.query_name: ligand
# model_server_result.source_id: pdb-bcif
# model_server_result.entry_id: 3b2h

# model_server_params.name: atom_site
# model_server_params.value: {"label_asym_id":"C","auth_seq_id":151}

# model_server_stats.io_time_ms: 14
# model_server_stats.parse_time_ms: 52
# model_server_stats.create_model_time_ms: 5
# model_server_stats.query_time_ms: 226
# model_server_stats.encode_time_ms: 0
# model_server_stats.element_count: 18

@<TRIPOS>MOLECULE
PLM
18 17 1
****
****

@<TRIPOS>ATOM
1 C1 -6.618 -8.636 17.828 C.2 1 PLM 0.000
2 O1 -6.441 -9.482 16.924 O.3 1 PLM 0.000
3 O2 -7.786 -8.369 18.186 O.2 1 PLM 0.000
4 C2 -5.439 -7.946 18.473 C.3 1 PLM 0.000
5 C3 -5.109 -8.615 19.803 C.3 1 PLM 0.000
6 C4 -4.048 -7.821 20.555 C.3 1 PLM 0.000
7 C5 -4.321 -7.821 22.054 C.3 1 PLM 0.000
8 C6 -3.136 -7.248 22.822 C.3 1 PLM 0.000
9 C7 -2.593 -8.261 23.823 C.3 1 PLM 0.000
10 C8 -1.087 -8.440 23.670 C.3 1 PLM 0.000
11 C9 -0.334 -7.698 24.769 C.3 1 PLM 0.000
12 CA 0.838 -8.519 25.292 C.3 1 PLM 0.000
13 CB 1.450 -7.863 26.524 C.3 1 PLM 0.000
14 CC 2.916 -7.521 26.292 C.3 1 PLM 0.000
15 CD 3.329 -6.298 27.104 C.3 1 PLM 0.000
16 CE 4.275 -6.669 28.242 C.3 1 PLM 0.000
17 CF 5.726 -6.372 27.881 C.3 1 PLM 0.000
18 CG 6.504 -7.662 27.650 C.3 1 PLM 0.000
@<TRIPOS>BOND
1 1 2 1
2 1 3 2
3 1 4 1
4 4 5 1
5 5 6 1
6 6 7 1
7 7 8 1
8 8 9 1
9 9 10 1
10 10 11 1
11 11 12 1
12 12 13 1
13 13 14 1
14 14 15 1
15 15 16 1
16 16 17 1
17 17 18 1
@<TRIPOS>SUBSTRUCTURE
1 PLM 1
