# Name: HEM
# Created by ModelServer 0.9.9

# model_server_result.job_id: BbIRNRpUuI596XYxas5gbQ
# model_server_result.datetime_utc: 2022-05-11 17:40:44
# model_server_result.server_version: 0.9.9
# model_server_result.query_name: ligand
# model_server_result.source_id: pdb-bcif
# model_server_result.entry_id: 1mbo

# model_server_params.name: atom_site
# model_server_params.value: {"label_asym_id":"C","auth_seq_id":155}

# model_server_stats.io_time_ms: 4
# model_server_stats.parse_time_ms: 48
# model_server_stats.create_model_time_ms: 4
# model_server_stats.query_time_ms: 216
# model_server_stats.encode_time_ms: 0
# model_server_stats.element_count: 43

@<TRIPOS>MOLECULE
HEM
43 50 1
****
****

@<TRIPOS>ATOM
1 CHA 16.907 31.140 0.448 C.2 1 HEM 0.000
2 CHB 15.562 27.978 3.977 C.2 1 HEM 0.000
3 CHC 14.124 24.760 0.639 C.2 1 HEM 0.000
4 CHD 15.416 28.028 -2.786 C.2 1 HEM 0.000
5 C1A 16.738 30.484 1.707 C.ar 1 HEM 0.000
6 C2A 16.913 31.113 2.978 C.ar 1 HEM 0.000
7 C3A 16.503 30.222 3.952 C.ar 1 HEM 0.000
8 C4A 16.065 28.982 3.300 C.ar 1 HEM 0.000
9 CMA 16.433 30.532 5.419 C.3 1 HEM 0.000
10 CAA 17.352 32.552 3.099 C.3 1 HEM 0.000
11 CBA 16.247 33.568 3.477 C.3 1 HEM 0.000
12 CGA 15.088 33.560 2.456 C.2 1 HEM 0.000
13 O1A 15.076 34.288 1.458 O.2 1 HEM 0.000
14 O2A 14.068 33.164 2.996 O.3 1 HEM 0.000
15 C1B 15.049 26.869 3.360 C.2 1 HEM 0.000
16 C2B 14.628 25.679 4.100 C.2 1 HEM 0.000
17 C3B 14.313 24.713 3.125 C.2 1 HEM 0.000
18 C4B 14.458 25.372 1.840 C.2 1 HEM 0.000
19 CMB 14.626 25.517 5.644 C.3 1 HEM 0.000
20 CAB 13.930 23.261 3.286 C.2 1 HEM 0.000
21 CBB 14.390 22.488 4.391 C.2 1 HEM 0.000
22 C1C 14.390 25.372 -0.589 C.ar 1 HEM 0.000
23 C2C 14.258 24.659 -1.824 C.ar 1 HEM 0.000
24 C3C 14.733 25.529 -2.852 C.ar 1 HEM 0.000
25 C4C 15.011 26.812 -2.147 C.ar 1 HEM 0.000
26 CMC 13.705 23.224 -1.882 C.3 1 HEM 0.000
27 CAC 14.907 25.266 -4.358 C.2 1 HEM 0.000
28 CBC 14.549 24.034 -5.044 C.2 1 HEM 0.000
29 C1D 15.944 29.124 -2.151 C.2 1 HEM 0.000
30 C2D 16.520 30.208 -2.882 C.2 1 HEM 0.000
31 C3D 16.978 31.048 -1.982 C.2 1 HEM 0.000
32 C4D 16.631 30.479 -0.702 C.2 1 HEM 0.000
33 CMD 16.569 30.225 -4.370 C.3 1 HEM 0.000
34 CAD 17.748 32.334 -2.254 C.3 1 HEM 0.000
35 CBD 19.222 31.984 -2.362 C.3 1 HEM 0.000
36 CGD 20.069 33.207 -2.718 C.2 1 HEM 0.000
37 O1D 19.873 33.828 -3.760 O.2 1 HEM 0.000
38 O2D 20.632 33.726 -1.792 O.3 1 HEM 0.000
39 NA 16.386 29.037 1.912 N.ar 1 HEM 0.000
40 NB 14.894 26.744 1.945 N.pl3 1 HEM 0.000
41 NC 14.882 26.659 -0.756 N.ar 1 HEM 0.000
42 ND 16.050 29.196 -0.847 N.pl3 1 HEM 0.000
43 FE 15.368 27.957 0.566 FE 1 HEM 0.000
@<TRIPOS>BOND
1 1 5 1
2 1 32 2
3 2 8 1
4 2 15 2
5 3 18 1
6 3 22 2
7 4 25 2
8 4 29 1
9 5 6 ar
10 5 39 ar
11 6 7 ar
12 6 10 1
13 7 8 ar
14 7 9 1
15 8 39 ar
16 10 11 1
17 11 12 1
18 12 13 2
19 12 14 1
20 15 16 1
21 15 40 1
22 16 17 2
23 16 19 1
24 17 18 1
25 17 20 1
26 18 40 2
27 20 21 2
28 22 23 ar
29 22 41 ar
30 23 24 ar
31 23 26 1
32 24 25 ar
33 24 27 1
34 25 41 ar
35 27 28 2
36 29 30 1
37 29 42 2
38 30 31 2
39 30 33 1
40 31 32 1
41 31 34 1
42 32 42 1
43 34 35 1
44 35 36 1
45 36 37 2
46 36 38 1
47 39 43 1
48 40 43 1
49 41 43 1
50 42 43 1
@<TRIPOS>SUBSTRUCTURE
1 HEM 1
